myETL/UCT_Source/20221102_1230_FO3_CZ0.UCT
##C 2007.05.01
PSS/E v. 32
Generated CEPS
##N
##ZCZ
CYGRC_51 CYGRC_51     0 0            0.0     0.0     0.0     0.0
CTRZ2_51 CTRZ2_51     0 0          12.04   11.07     0.0     0.0
CTRZ2_52 CTRZ2_52     0 0            0.0     0.0     0.0     0.0
CYRIC_51 CYRIC_51     0 0            0.0     0.0     0.0     0.0
CTKAR_51 CTKAR_51     0 2  117.5    4.77    4.85 -23.927  -7.167     0.0   -50.0    18.0   -32.0
CALB__1A CALB__1A     0 0            0.0     0.0     0.0     0.0
CALB__1B CALB__1B     0 0            0.0     0.0     0.0     0.0
CALB__1C CALB__1C     0 0            0.0     0.0     0.0     0.0
CALB__1D CALB__1D     0 0            0.0     0.0     0.0     0.0
CALB__51 CALB__51     0 0            0.0     0.0     0.0     0.0
CALB__52 CALB__52     0 0            0.0     0.0     0.0     0.0
CALB__53 CALB__53     0 0           6.08   -0.39     0.0     0.0
CALB__54 CALB__54     0 0            0.0     0.0     0.0     0.0
CALB__55 CALB__55     0 0            0.0     0.0     0.0     0.0
CALB__56 CALB__56     0 0            0.0     0.0     0.0     0.0
CALB__58 CALB__58     0 0            0.0     0.0     0.0     0.0
CALB__59 CALB__59     0 0            0.0     0.0     0.0     0.0
CALB__50 CALB__50     0 0            0.0     0.0     0.0     0.0
CVRBN_51 CVRBN_51     0 0            0.0     0.0     0.0     0.0
CBAB__11 CBAB__11     0 0            0.0     0.0     0.0     0.0
CBAB__12 CBAB__12     0 0            0.0     0.0     0.0     0.0
CBAB__15 CBAB__15     0 0            0.0     0.0     0.0     0.0
CBAB__51 CBAB__51     0 0            0.0     0.0     0.0     0.0
CBAB__52 CBAB__52     0 0            0.0     0.0     0.0     0.0
CBAB__53 CBAB__53     0 0            0.0     0.0     0.0     0.0
CBAB__54 CBAB__54     0 0           1.34   -7.49     0.0     0.0
CBAB__55 CBAB__55     0 0            0.0     0.0     0.0     0.0
CBAB__56 CBAB__56     0 0            0.0     0.0     0.0     0.0
CVRBN_52 CVRBN_52     0 0           6.01   -0.07     0.0     0.0
CYSTC_51 CYSTC_51     0 0            0.0     0.0     0.0     0.0
CYSTC_52 CYSTC_52     0 0            0.0     0.0     0.0     0.0
CBEZ__11 CBEZ__11     0 0            0.0     0.0     0.0     0.0
CBEZ__12 CBEZ__12     0 0            0.0     0.0     0.0     0.0
CBEZ__15 CBEZ__15     0 0            0.0     0.0     0.0     0.0
CBEZ__21 CBEZ__21     0 0            0.0     0.0     0.0     0.0
CBEZ__51 CBEZ__51     0 0           0.46   -5.64     0.0     0.0
CBEZ__52 CBEZ__52     0 0            0.0     0.0     0.0     0.0
CBEZ__53 CBEZ__53     0 0            0.0     0.0     0.0     0.0
CBEZ__54 CBEZ__54     0 0            0.0     0.0     0.0     0.0
CBEZ__55 CBEZ__55     0 0           0.62   -7.24     0.0     0.0
CBEZ__56 CBEZ__56     0 0            0.0     0.0     0.0     0.0
CBEZ__57 CBEZ__57     0 0            0.0     0.0     0.0     0.0
CBEZ__58 CBEZ__58     0 0            0.0     0.0     0.0     0.0
CROPC_51 CROPC_51     0 0            0.0     0.0     0.0     0.0
CROPC_52 CROPC_52     0 0            0.0     0.0     0.0     0.0
CROPC_53 CROPC_53     0 0            0.0     0.0     0.0     0.0
CROPC_54 CROPC_54     0 0            0.0     0.0     0.0     0.0
COVTB_51 COVTB_51     0 0            0.0     0.0     0.0     0.0
CCEB__11 CCEB__11     0 0            0.0     0.0     0.0     0.0
CCEB__12 CCEB__12     0 0            0.0     0.0     0.0     0.0
CCEB__15 CCEB__15     0 0            0.0     0.0     0.0     0.0
CCEB__51 CCEB__51     0 2  118.6   16.37   -9.85  -0.685     0.0     0.0  -16.88     0.0     0.0
CCEB__52 CCEB__52     0 2  118.7   16.87  -12.81  -0.556     0.0     0.0  -16.88     0.0     0.0
CCEB__53 CCEB__53     0 0            0.0     0.0     0.0     0.0
CCEB__54 CCEB__54     0 0            0.0     0.0     0.0     0.0
CCST__11 CCST__11     0 0            0.0     0.0     0.0     0.0
CCST__12 CCST__12     0 0            0.0     0.0     0.0     0.0
CCST__15 CCST__15     0 0            0.0     0.0     0.0     0.0
CCST__22 CCST__22     0 0            0.0     0.0     0.0     0.0
CCST__23 CCST__23     0 0            0.0     0.0     0.0     0.0
CCST__25 CCST__25     0 0            0.0     0.0     0.0     0.0
CCST__51 CCST__51     0 0            0.0     0.0     0.0     0.0
CCST__52 CCST__52     0 0            0.0     0.0     0.0     0.0
CCST__53 CCST__53     0 0            0.0     0.0     0.0     0.0
CCST__54 CCST__54     0 0            0.0     0.0     0.0     0.0
CCST__55 CCST__55     0 0            0.4  -14.14     0.0     0.0
CCST__56 CCST__56     0 0            0.0     0.0     0.0     0.0
CDAS__11 CDAS__11     0 0            0.0     0.0     0.0     0.0
CDAS__12 CDAS__12     0 0            0.0     0.0     0.0     0.0
CDAS__13 CDAS__13     0 0            0.0     0.0     0.0     0.0
CDAS__14 CDAS__14     0 0            0.0     0.0     0.0     0.0
CDAS__15 CDAS__15     0 0            0.0     0.0     0.0     0.0
CDAS__51 CDAS__51     0 0            0.0     0.0     0.0     0.0
CDAS__52 CDAS__52     0 0            0.0     0.0     0.0     0.0
CDAS__53 CDAS__53     0 0            0.0     0.0     0.0     0.0
CDAS__54 CDAS__54     0 0            0.0     0.0     0.0     0.0
CDAS__55 CDAS__55     0 0            0.0     0.0     0.0     0.0
CDAS__56 CDAS__56     0 0            0.0     0.0     0.0     0.0
CDAS__57 CDAS__57     0 0            0.0     0.0     0.0     0.0
CDAS__58 CDAS__58     0 0            0.0     0.0     0.0     0.0
CYGRC_52 CYGRC_52     0 0            0.0     0.0     0.0     0.0
CROKC_51 CROKC_51     0 0            0.0     0.0     0.0     0.0
CEDAL_11 CEDAL_11     0 0          -0.24   -3.15     0.0   -0.01   256.0  -252.0   192.0  -152.0
CEDAL_12 CEDAL_12     0 0          -0.23   -3.13     0.0   -0.01   256.0  -252.0   192.0  -152.0
CZDB1_51 CZDB1_51     0 0           2.66    1.18     0.0     0.0
CZDB1_52 CZDB1_52     0 0            0.0     0.0     0.0     0.0
CROKC_52 CROKC_52     0 2  119.8   21.56    1.42  -1.095     0.0     0.0  -19.07     0.0     0.0
CVREK_51 CVREK_51     0 0           5.66     0.9     0.0     0.0
CHSLA_51 CHSLA_51     0 0           2.86    0.33     0.0     0.0
CJACD_51 CJACD_51     0 0            0.0     0.0     0.0     0.0
CCHLU_51 CCHLU_51     0 2  119.3    8.49    1.45     0.0     0.0     0.0    -2.0     1.0    -1.4
CVSTN_51 CVSTN_51     0 0          14.38    1.13     0.0     0.0
CVSTN_52 CVSTN_52     0 0            0.0     0.0     0.0     0.0
CVSTN_53 CVSTN_53     0 0            0.0     0.0     0.0     0.0
CYJAC_51 CYJAC_51     0 0            0.0     0.0     0.0     0.0
CEDST_11 CEDST_11     0 0            0.0     0.0     0.0   -0.01   660.0  -650.0   540.0  -520.0
CYJAC_52 CYJAC_52     0 0            0.0     0.0     0.0     0.0
CORLU_51 CORLU_51     0 0           8.43   -2.63     0.0     0.0
COVPO_51 COVPO_51     0 0           8.55    -2.1     0.0     0.0
CYEJP_51 CYEJP_51     0 0            0.0     0.0     0.0     0.0
CYEJP_52 CYEJP_52     0 0            0.0     0.0     0.0     0.0
CKRIM_51 CKRIM_51     0 2  119.6    29.6    0.81  -5.962     0.0     0.0  -49.31     0.0     0.0
CKRIM_52 CKRIM_52     0 0            0.0     0.0     0.0     0.0
COVTB_52 COVTB_52     0 0            0.0     0.0     0.0     0.0
CMOSN_51 CMOSN_51     0 0          22.62    4.43     0.0     0.0
CMOSN_52 CMOSN_52     0 0            0.0     0.0     0.0     0.0
CHOSE_51 CHOSE_51     0 0            0.0     0.0     0.0   -0.01     0.0    -9.4     0.1   -0.12
CMOSN_53 CMOSN_53     0 0            0.0     0.0     0.0     0.0
CEDU1_11 CEDU1_11     0 2  412.7    27.0    21.0 -494.98 -162.89     0.0  -598.0   170.0  -330.0
CEDU2_11 CEDU2_11     0 2  412.7    27.0    21.0 -491.99 -162.89     0.0  -598.0   170.0  -330.0
CEDU3_11 CEDU3_11     0 0            0.0     0.0     0.0   -0.01     0.0  -598.0   170.0  -330.0
CEDU4_11 CEDU4_11     0 2  412.7    27.0    21.0 -495.97 -162.89     0.0  -598.0   170.0  -330.0
CE802_51 CE802_51     0 0           9.76    1.96     0.0     0.0
CE802_52 CE802_52     0 0            0.0     0.0     0.0     0.0
CETI1_51 CETI1_51     0 0           0.48    0.23     0.0     0.0
CHRZE_51 CHRZE_51     0 0            0.0     0.0     0.0   -0.01     0.0   -7.18     0.0     0.0
CCEVE_51 CCEVE_51     0 2  117.3   19.82    0.07  -3.816    0.66     0.0    -6.6    0.66   -0.79
CEDET_57 CEDET_57     0 0            0.3     0.3     0.0     0.0
CECHV_11 CECHV_11     0 2  414.5   10.03    10.0 -114.61  17.472     0.0  -440.0   206.0  -340.0
CECHV_12 CECHV_12     0 2  414.5   10.03    10.0 -115.61  17.384     0.0  -440.0   206.0  -340.0
CEDET_58 CEDET_58     0 0           0.03   -0.33     0.0     0.0
CKOJN_51 CKOJN_51     0 2  117.4    8.59    0.25  -3.268     0.0     0.0   -20.6     0.0     0.0
CHNEV_51 CHNEV_51     0 0           8.15   -0.26     0.0     0.0
CELED_11 CELED_11     0 0           3.48   -4.97     0.0     0.0
CHNEV_52 CHNEV_52     0 0            0.0     0.0     0.0     0.0
CHOBR_51 CHOBR_51     0 0            0.0     0.0     0.0     0.0
CCSAR_51 CCSAR_51     0 0            0.0     0.0     0.0     0.0
CZLIS_51 CZLIS_51     0 0           5.13    6.15     0.0     0.0
CZLIS_52 CZLIS_52     0 0            0.0     0.0     0.0     0.0
CEME3_11 CEME3_11     0 0            0.0     0.0     0.0     0.0
CEORL_21 CEORL_21     0 2  237.0    2.01   -0.18 -35.478   5.046     0.0  -182.0   194.0  -120.0
CEORL_22 CEORL_22     0 2  237.0    2.01   -0.17 -35.478   5.046     0.0  -182.0   194.0  -120.0
CORLU_52 CORLU_52     0 0            0.0     0.0     0.0     0.0
CYVER_51 CYVER_51     0 0            0.0     0.0     0.0     0.0
CROPC_55 CROPC_55     0 0            0.0     0.0     0.0     0.0
CEPOC_11 CEPOC_11     0 2  412.9   23.17    19.1 -365.69   8.306     0.0  -630.0   333.0  -534.0
CEPOC_13 CEPOC_13     0 2  412.9    13.1    9.36 -204.77   2.364     0.0  -420.0   222.0  -356.0
CROPC_56 CROPC_56     0 0            0.0     0.0     0.0     0.0
CRIVI_51 CRIVI_51     0 0            0.0     0.0     0.0     0.0
CRIVI_52 CRIVI_52     0 0          10.11   -2.21     0.0     0.0
CBOHP_51 CBOHP_51     0 0            0.0     0.0     0.0     0.0
CBOHP_52 CBOHP_52     0 0           10.6    0.21     0.0     0.0
CBOHP_53 CBOHP_53     0 0            0.0     0.0     0.0     0.0
CYSKN_51 CYSKN_51     0 0            0.0     0.0     0.0     0.0
CYSKN_52 CYSKN_52     0 0            0.0     0.0     0.0     0.0
CDDA2_51 CDDA2_51     0 0            0.0     0.0     0.0     0.0
CEPR1_11 CEPR1_11     0 0            0.0     0.0     0.0     0.0
CDDA2_52 CDDA2_52     0 0            0.0     0.0     0.0     0.0
CZDB2_51 CZDB2_51     0 0           1.62   -0.16     0.0     0.0
CNOH4_51 CNOH4_51     0 0            0.0     0.0     0.0     0.0
CZDB2_52 CZDB2_52     0 0           1.59   -1.18     0.0     0.0
CNOH4_52 CNOH4_52     0 0            0.0     0.0     0.0     0.0
CSKVM_51 CSKVM_51     0 0            0.0     0.0     0.0     0.0
CSKVM_52 CSKVM_52     0 0            3.2    0.94     0.0     0.0
CYOPJ_51 CYOPJ_51     0 0            0.0     0.0     0.0     0.0
CBELA_51 CBELA_51     0 0            0.0     0.0     0.0   -0.01     0.0  -16.74     0.0     0.0
CYOPJ_52 CYOPJ_52     0 0            0.0     0.0     0.0     0.0
CEPR2_11 CEPR2_11     0 0            0.0     0.0     0.0   -0.01     0.0  -288.0    82.0  -155.0
CEPR2_12 CEPR2_12     0 2  413.5   24.02    20.0 -389.63  -7.887     0.0  -576.0   164.0  -310.0
COVHB_51 COVHB_51     0 0            0.0     0.0     0.0     0.0
COVHB_52 COVHB_52     0 0          22.83    3.16     0.0     0.0
CEPVR_21 CEPVR_21     0 2  237.4     0.0     0.0   -12.0   1.012     0.0  -200.0    98.0  -190.0
CEPVR_22 CEPVR_22     0 0            0.0     0.0     0.0   -0.01     0.0  -198.0    97.0  -186.0
CCHD__59 CCHD__59     0 0            0.0     0.0     0.0     0.0
CZBIR_51 CZBIR_51     0 0            0.0     0.0     0.0   -0.01     0.0   -6.49     0.0     0.0
CETEM_11 CETEM_11     0 2  416.6   50.08    30.0 -1084.3 -96.992     0.0 -1125.0   100.0  -660.0
CETEM_12 CETEM_12     0 3  416.3   50.07    30.0 -1086.5  52.705     0.0 -1125.0   470.0  -660.0
CZBIR_52 CZBIR_52     0 2  119.8    5.42    0.33  -1.483     0.0     0.0   -6.49     0.0     0.0
CROTA_51 CROTA_51     0 0            0.0     0.0     0.0     0.0
CROTA_52 CROTA_52     0 2  117.5   16.66     4.0  -1.978   1.568     0.0  -25.02     2.5   -3.01
CETIS_21 CETIS_21     0 2  237.3     7.7    5.78 -84.196    10.4     0.0  -114.0    40.0   -77.0
CETIS_51 CETIS_51     0 0            0.0     0.0     0.0   -0.01     0.0   -64.0    18.0   -49.0
CETIS_52 CETIS_52     0 2  118.5     0.0     0.0 -23.415   5.175     0.0   -64.0    18.0   -49.0
CETIS_53 CETIS_53     0 2  118.5     0.0     0.0 -23.415   6.697     0.0   -64.0    18.0   -49.0
CETIS_55 CETIS_55     0 0            0.0     0.0     0.0   -0.01     0.0   -12.8     8.2   -11.4
CDLZY_51 CDLZY_51     0 0            0.0     0.0     0.0     0.0
CDLZY_52 CDLZY_52     0 0            0.0     0.0     0.0     0.0
CETBE_51 CETBE_51     0 0            0.0     0.0     0.0     0.0
CETBE_52 CETBE_52     0 2  117.9    2.81    5.91 -53.804 -13.161     0.0  -93.75    30.0   -60.0
CMYTD_51 CMYTD_51     0 0           0.61    0.55     0.0     0.0
CMYTD_52 CMYTD_52     0 0            0.0     0.0     0.0     0.0
CYTRZ_51 CYTRZ_51     0 0            0.0     0.0     0.0     0.0
CYTRZ_52 CYTRZ_52     0 0            0.0     0.0     0.0     0.0
CGRCD_51 CGRCD_51     0 0            0.0     0.0     0.0     0.0
CGRCD_52 CGRCD_52     0 0           2.44    0.07     0.0     0.0
CETU2_11 CETU2_11     0 2  413.5   20.07    20.0 -228.23 -20.026     0.0  -448.0   155.0  -247.0
CETU2_12 CETU2_12     0 2  413.5    10.0    10.0 -199.99  -1.779     0.0  -448.0   155.0  -247.0
CMEDE_51 CMEDE_51     0 2  120.4    2.71   -2.29  -0.533  -0.205     0.0    -1.8    0.18   -0.22
CVYDR_51 CVYDR_51     0 0           -1.4   -0.15     0.0     0.0
COVPO_52 COVPO_52     0 0            0.0     0.0     0.0     0.0
CCHD__11 CCHD__11     0 0            0.0     0.0     0.0     0.0
CCHD__12 CCHD__12     0 0            0.0     0.0     0.0     0.0
CCHD__13 CCHD__13     0 0            0.0     0.0     0.0     0.0
CCHD__14 CCHD__14     0 0            0.0     0.0     0.0     0.0
CCHD__51 CCHD__51     0 0            0.0     0.0     0.0     0.0
CCHD__52 CCHD__52     0 2  117.8   10.14    1.83  -2.229     0.0     0.0   -7.22     0.0     0.0
CCHD__53 CCHD__53     0 0            0.0     0.0     0.0     0.0
CCHD__54 CCHD__54     0 2  117.8   13.27  -18.14  -0.215     0.0     0.0   -3.61     0.0     0.0
CCHD__55 CCHD__55     0 0            0.0     0.0     0.0     0.0
CCHD__56 CCHD__56     0 0            0.0     0.0     0.0     0.0
CCHD__57 CCHD__57     0 0            0.0     0.0     0.0     0.0
CCHD__58 CCHD__58     0 0            0.0     0.0     0.0     0.0
COVTB_53 COVTB_53     0 0            0.0     0.0     0.0     0.0
CCHR__11 CCHR__11     0 0            0.0     0.0     0.0     0.0
CCHR__12 CCHR__12     0 0            0.0     0.0     0.0     0.0
CCHR__15 CCHR__15     0 0            0.0     0.0     0.0     0.0
CCHR__51 CCHR__51     0 0            0.0     0.0     0.0     0.0
CCHR__52 CCHR__52     0 2  120.0   17.27    1.57  -1.147     0.0     0.0   -8.49     0.0     0.0
CCHR__53 CCHR__53     0 0           0.54   -12.0     0.0     0.0
CCHR__54 CCHR__54     0 0            0.0     0.0     0.0     0.0
CCHR__55 CCHR__55     0 0            0.0     0.0     0.0     0.0
CCHR__56 CCHR__56     0 0            0.0     0.0     0.0     0.0
CCHR__57 CCHR__57     0 0            0.0     0.0     0.0     0.0
CCHR__58 CCHR__58     0 0            0.0     0.0     0.0     0.0
CVTRE_51 CVTRE_51     0 2  118.4     0.0     0.0     0.0    1.38     0.0   -13.8    1.38   -1.64
CHOLS_51 CHOLS_51     0 0            0.0     0.0     0.0   -0.01     0.0   -7.84     0.0     0.0
CCHT__21 CCHT__21     0 0            0.0     0.0     0.0     0.0
CCHT__22 CCHT__22     0 0            0.0     0.0     0.0     0.0
CCHT__51 CCHT__51     0 2  115.6    6.68   -8.38  -0.443     0.0     0.0  -24.63     0.0     0.0
CCHT__52 CCHT__52     0 0            0.0     0.0     0.0     0.0
CCHT__53 CCHT__53     0 0            0.0     0.0     0.0     0.0
CCHT__54 CCHT__54     0 0            0.0     0.0     0.0     0.0
CCHT__55 CCHT__55     0 2  115.6    11.2    -8.3  -0.887     0.0     0.0  -49.26     0.0     0.0
CCHT__56 CCHT__56     0 0            0.0     0.0     0.0     0.0
CCHT__11 CCHT__11     0 0            0.0     0.0     0.0     0.0
CCHT__12 CCHT__12     0 0            0.0     0.0     0.0     0.0
CCHT__13 CCHT__13     0 0            0.0     0.0     0.0     0.0
CCHT__14 CCHT__14     0 0            0.0     0.0     0.0     0.0
CHOLS_52 CHOLS_52     0 2  119.0   10.49    1.67  -1.909     0.0     0.0   -7.84     0.0     0.0
CYCHN_51 CYCHN_51     0 0            0.0     0.0     0.0     0.0
CKOC__13 CKOC__13     0 0            0.0     0.0     0.0     0.0
CKOC__14 CKOC__14     0 0            0.0     0.0     0.0     0.0
CKOC__51 CKOC__51     0 0            0.0     0.0     0.0     0.0
CKOC__52 CKOC__52     0 0            0.0     0.0     0.0     0.0
CKOC__53 CKOC__53     0 0            0.0     0.0     0.0     0.0
CKOC__54 CKOC__54     0 0            0.0     0.0     0.0     0.0
CKOC__55 CKOC__55     0 0            0.0     0.0     0.0     0.0
CKOC__56 CKOC__56     0 0            0.0     0.0     0.0     0.0
CKOC__57 CKOC__57     0 0            0.0     0.0     0.0     0.0
CKOC__58 CKOC__58     0 0            0.0     0.0     0.0     0.0
CKOC__19 CKOC__19     0 0            0.0     0.0     0.0     0.0
CKOC__1A CKOC__1A     0 0            0.0     0.0     0.0     0.0
CKOC__1C CKOC__1C     0 0            0.0     0.0     0.0     0.0
CKOC__1E CKOC__1E     0 0            0.0     0.0     0.0     0.0
CKOC__17 CKOC__17     0 0            0.0     0.0     0.0     0.0
CKRA__11 CKRA__11     0 0            0.0   67.47     0.0     0.0
CKRA__12 CKRA__12     0 0            0.0     0.0     0.0     0.0
CKRA__15 CKRA__15     0 0            0.0     0.0     0.0     0.0
CKRA__51 CKRA__51     0 2  120.1     0.0     0.0  -1.357  48.064     5.0    -5.0    60.0  -108.0
CKRA__52 CKRA__52     0 2  120.3     0.0     0.0  -0.978  47.683     5.0    -5.0    60.0  -108.0
CKRA__53 CKRA__53     0 0            0.0     0.0     0.0     0.0
CKRA__54 CKRA__54     0 0            0.0     0.0     0.0     0.0
CKRA__55 CKRA__55     0 0            0.0     0.0     0.0     0.0
CKRA__56 CKRA__56     0 0          -0.27   -7.36     0.0     0.0
CLIS__21 CLIS__21     0 0            0.0     0.0     0.0     0.0
CLIS__22 CLIS__22     0 0            0.0     0.0     0.0     0.0
CLIS__25 CLIS__25     0 0            0.0     0.0     0.0     0.0
CLIS__51 CLIS__51     0 0            0.0     0.0     0.0   -0.01     0.0  -16.07     0.0     0.0
CLIS__52 CLIS__52     0 0            0.0     0.0     0.0     0.0
CLIS__53 CLIS__53     0 0            0.0     0.0     0.0     0.0
CLIS__54 CLIS__54     0 2  118.1   16.25   -0.63  -2.781     0.0     0.0  -16.07     0.0     0.0
CLIS__55 CLIS__55     0 0            0.0     0.0     0.0     0.0
CLIS__56 CLIS__56     0 0            0.0     0.0     0.0   -0.01     0.0  -16.07     0.0     0.0
CLIS__57 CLIS__57     0 0            0.0     0.0     0.0     0.0
CLIS__58 CLIS__58     0 0            0.0     0.0     0.0     0.0
CPRIR_51 CPRIR_51     0 0            0.0     0.0     0.0     0.0
CMAL__21 CMAL__21     0 0            0.0     0.0     0.0     0.0
CMAL__22 CMAL__22     0 0            0.0     0.0     0.0     0.0
CMAL__51 CMAL__51     0 0            0.0     0.0     0.0     0.0
CMAL__52 CMAL__52     0 0          13.15   -0.72     0.0     0.0
CMAL__53 CMAL__53     0 0            0.0     0.0     0.0     0.0
CMAL__54 CMAL__54     0 2  116.9   20.79    -5.3  -5.635  -3.678     0.0   -17.5     5.0    -5.0
CMAL__55 CMAL__55     0 0            0.0     0.0     0.0     0.0
CMAL__56 CMAL__56     0 0            0.0     0.0     0.0     0.0
CMIL__21 CMIL__21     0 0            0.0     0.0     0.0     0.0
CMIL__22 CMIL__22     0 0            0.0     0.0     0.0     0.0
CMIL__25 CMIL__25     0 0            0.0     0.0     0.0     0.0
CMIL__51 CMIL__51     0 0            0.0     0.0     0.0     0.0
CMIL__52 CMIL__52     0 0            0.0     0.0     0.0     0.0
CPRST_51 CPRST_51     0 0          11.16    2.58     0.0     0.0
CYDA2_51 CYDA2_51     0 0            0.0     0.0     0.0     0.0
CPRST_52 CPRST_52     0 0            0.0     0.0     0.0     0.0
CPRST_53 CPRST_53     0 0            0.0     0.0     0.0     0.0
CPASK_51 CPASK_51     0 0           0.39    -1.7     0.0     0.0
CNEZ__11 CNEZ__11     0 0            0.0     0.0     0.0     0.0
CNEZ__12 CNEZ__12     0 0            0.0     0.0     0.0     0.0
CNEZ__15 CNEZ__15     0 0            0.0     0.0     0.0     0.0
CNEZ__51 CNEZ__51     0 0           0.33     0.0     0.0     0.0
CNEZ__52 CNEZ__52     0 0            0.0     0.0     0.0     0.0
CNEZ__53 CNEZ__53     0 0           0.33  -12.61     0.0     0.0
CNEZ__55 CNEZ__55     0 0            0.0     0.0     0.0     0.0
CNEZ__54 CNEZ__54     0 0            0.0     0.0     0.0     0.0
CPASK_52 CPASK_52     0 0            0.0     0.0     0.0     0.0
CCLOU_51 CCLOU_51     0 0            0.0     0.0     0.0     0.0
CCLOU_52 CCLOU_52     0 0          17.63   -4.42     0.0     0.0
CYDCS_51 CYDCS_51     0 0            0.0     0.0     0.0     0.0
CSDCD_51 CSDCD_51     0 0            0.0     0.0     0.0     0.0
CYDCS_52 CYDCS_52     0 0            0.0     0.0     0.0     0.0
CSDCD_52 CSDCD_52     0 0           2.11   -1.34     0.0     0.0
CNOS__11 CNOS__11     0 0            0.0     0.0     0.0     0.0
CNOS__12 CNOS__12     0 0            0.0     0.0     0.0     0.0
CNOS__15 CNOS__15     0 0            0.0     0.0     0.0     0.0
CNOS__51 CNOS__51     0 2  118.0   27.28    3.42  -0.734     0.0     0.0  -12.44     0.0     0.0
CNOS__52 CNOS__52     0 0            0.0     0.0     0.0     0.0
CNOS__53 CNOS__53     0 0            0.0     0.0     0.0     0.0
CNOS__54 CNOS__54     0 0            0.0     0.0     0.0     0.0
CNOS__55 CNOS__55     0 0            0.0     0.0     0.0     0.0
CNOS__56 CNOS__56     0 0            0.0     0.0     0.0     0.0
CDOMA_51 CDOMA_51     0 0            0.0     0.0     0.0     0.0
CPLZS_51 CPLZS_51     0 0            0.0     0.0     0.0     0.0
CPLZS_52 CPLZS_52     0 0           8.38   -1.95     0.0     0.0
COPJA_51 COPJA_51     0 2  117.3    24.2    0.77  -1.905     0.0     0.0  -21.01     0.0     0.0
COPJA_52 COPJA_52     0 0            0.0     0.0     0.0     0.0
COPO__21 COPO__21     0 0            0.0     0.0     0.0     0.0
COPO__22 COPO__22     0 0            0.0     0.0     0.0     0.0
COPO__25 COPO__25     0 0            0.0     0.0     0.0     0.0
COPO__51 COPO__51     0 2  115.4   40.59   -3.77  -1.439     0.0     0.0  -41.58     0.0     0.0
COPO__52 COPO__52     0 0            0.0     0.0     0.0     0.0
COPO__53 COPO__53     0 0           3.58  -11.87     0.0     0.0
COPO__54 COPO__54     0 0            0.0     0.0     0.0     0.0
CFRYO_51 CFRYO_51     0 0            0.0     0.0     0.0     0.0
CFRYO_52 CFRYO_52     0 2  117.0   10.96    0.13  -1.919     0.0     0.0  -18.98     0.0     0.0
CDLUH_51 CDLUH_51     0 0            0.0     0.0     0.0   -0.01     0.0  -12.76     0.0     0.0
CDLUH_52 CDLUH_52     0 2  117.6   26.55   -4.62  -2.085     0.0     0.0  -25.52     0.0     0.0
CDLUH_53 CDLUH_53     0 0            0.0     0.0     0.0     0.0
CYHSC_51 CYHSC_51     0 0            0.0     0.0     0.0     0.0
COTR__11 COTR__11     0 0            0.0     0.0     0.0     0.0
COTR__12 COTR__12     0 0            0.0     0.0     0.0     0.0
COTR__15 COTR__15     0 0            0.0     0.0     0.0     0.0
COTR__51 COTR__51     0 0            0.0     0.0     0.0     0.0
COTR__52 COTR__52     0 0            0.0     0.0     0.0     0.0
COTR__53 COTR__53     0 0            0.0     0.0     0.0     0.0
COTR__54 COTR__54     0 0            0.0     0.0     0.0     0.0
COTR__55 COTR__55     0 0            0.0     0.0     0.0     0.0
COTR__56 COTR__56     0 0            0.0     0.0     0.0     0.0
COTR__57 COTR__57     0 0            0.0     0.0     0.0     0.0
COTR__58 COTR__58     0 0            0.0     0.0     0.0     0.0
CYHSC_52 CYHSC_52     0 0            0.0     0.0     0.0     0.0
CPRE__11 CPRE__11     0 0            0.0     0.0     0.0     0.0
CPRE__12 CPRE__12     0 0            0.0     0.0     0.0     0.0
CPRE__15 CPRE__15     0 0            0.0     0.0     0.0     0.0
CPRE__21 CPRE__21     0 0            0.0     0.0     0.0     0.0
CPRE__51 CPRE__51     0 0            0.0     0.0     0.0     0.0
CPRE__52 CPRE__52     0 0            0.0     0.0     0.0   -0.01     0.0  -15.75     0.0     0.0
CPRE__56 CPRE__56     0 0            0.0     0.0     0.0     0.0
CPRE__57 CPRE__57     0 2  119.4   16.52   -4.01  -3.844     0.0     0.0  -15.75     0.0     0.0
CPRE__58 CPRE__58     0 0            0.0     0.0     0.0     0.0
CPRE__59 CPRE__59     0 0            0.0     0.0     0.0     0.0
CE803_51 CE803_51     0 0            0.0     0.0     0.0     0.0
CE803_52 CE803_52     0 0           4.09   -2.56     0.0     0.0
CPRN__11 CPRN__11     0 0            0.0     0.0     0.0     0.0
CPRN__12 CPRN__12     0 0            0.0     0.0     0.0     0.0
CPRN__15 CPRN__15     0 0            0.0     0.0     0.0     0.0
CPRN__21 CPRN__21     0 0            0.0     0.0     0.0     0.0
CPRN__22 CPRN__22     0 0            0.0     0.0     0.0     0.0
CPRN__25 CPRN__25     0 0            0.0     0.0     0.0     0.0
CPRN__51 CPRN__51     0 2  117.8   28.75    6.29  -0.249     0.0     0.0  -10.71     0.0     0.0
CPRN__52 CPRN__52     0 0            0.0     0.0     0.0     0.0
CPRN__55 CPRN__55     0 0            0.0     0.0     0.0     0.0
CJIRI_51 CJIRI_51     0 0           3.61    0.48     0.0     0.0
CKARP_51 CKARP_51     0 0           23.4   -1.72     0.0     0.0
CPRN__19 CPRN__19     0 0            0.0     0.0     0.0     0.0
CPRN__1A CPRN__1A     0 0            0.0     0.0     0.0     0.0
CKARP_52 CKARP_52     0 0            0.0     0.0     0.0     0.0
CSUSI_51 CSUSI_51     0 0            0.0     0.0     0.0     0.0
CREP__11 CREP__11     0 0            0.0     0.0     0.0     0.0
CREP__12 CREP__12     0 0            0.0     0.0     0.0     0.0
CREP__13 CREP__13     0 0            0.0     0.0     0.0     0.0
CREP__14 CREP__14     0 0            0.0     0.0     0.0     0.0
CREP__15 CREP__15     0 0            0.0     0.0     0.0     0.0
CREP__16 CREP__16     0 0            0.0     0.0     0.0     0.0
CREP__51 CREP__51     0 0            0.0     0.0     0.0     0.0
CREP__52 CREP__52     0 0            0.0     0.0     0.0     0.0
CREP__53 CREP__53     0 0            0.0     0.0     0.0     0.0
CREP__54 CREP__54     0 2  116.9    7.02  -11.48  -0.582     0.0     0.0   -8.46     0.0     0.0
CREP__55 CREP__55     0 2  116.9    4.66    -5.1  -0.574     0.0     0.0   -8.46     0.0     0.0
CREP__56 CREP__56     0 0            0.0     0.0     0.0     0.0
CREP__57 CREP__57     0 0            0.0     0.0     0.0     0.0
CREP__58 CREP__58     0 0            0.0     0.0     0.0     0.0
CSLV__1B CSLV__1B     0 0            0.0     0.0     0.0     0.0
CSLV__1C CSLV__1C     0 0            0.0     0.0     0.0     0.0
CSLV__1D CSLV__1D     0 0            0.0     0.0     0.0     0.0
CSLV__1E CSLV__1E     0 0            0.0     0.0     0.0     0.0
CSLV__1F CSLV__1F     0 0            0.0     0.0     0.0     0.0
CSLV__1G CSLV__1G     0 0            0.0     0.0     0.0     0.0
CSLV__1K CSLV__1K     0 0            0.0     0.0     0.0     0.0
CSLV__1L CSLV__1L     0 0            0.0     0.0     0.0     0.0
CSLV__1M CSLV__1M     0 0            0.0     0.0     0.0     0.0
CSLV__1N CSLV__1N     0 0            0.0     0.0     0.0     0.0
CSLV__1H CSLV__1H     0 0            0.0     0.0     0.0     0.0
CSLV__1I CSLV__1I     0 0            0.0     0.0     0.0     0.0
CSLV__1J CSLV__1J     0 0            0.0     0.0     0.0     0.0
CSLV__1A CSLV__1A     0 0            0.0     0.0     0.0     0.0
CSUSI_52 CSUSI_52     0 0           9.19   -0.21     0.0     0.0
CSTER_51 CSTER_51     0 0            0.0     0.0     0.0     0.0
CSTER_52 CSTER_52     0 0            0.0     0.0     0.0     0.0
CSTER_53 CSTER_53     0 2  117.9   14.98   -1.06     0.0   0.339     0.0   -18.0     1.8   -2.16
COVET_51 COVET_51     0 0          11.08   -0.76     0.0     0.0
CSLV__51 CSLV__51     0 0            0.0     0.0     0.0     0.0
CSLV__52 CSLV__52     0 0            0.0     0.0     0.0     0.0
CSLV__53 CSLV__53     0 0            0.0     0.0     0.0     0.0
CSLV__54 CSLV__54     0 0            0.0     0.0     0.0     0.0
CSLV__55 CSLV__55     0 0            0.0     0.0     0.0     0.0
CSLV__56 CSLV__56     0 0            0.0     0.0     0.0     0.0
CSLV__57 CSLV__57     0 0            0.0     0.0     0.0     0.0
CSLV__58 CSLV__58     0 0            0.0     0.0     0.0     0.0
CSOK__11 CSOK__11     0 0            0.0     0.0     0.0     0.0
CSOK__12 CSOK__12     0 0            0.0     0.0     0.0     0.0
CSOK__15 CSOK__15     0 0            0.0     0.0     0.0     0.0
CSOK__21 CSOK__21     0 0            0.0     0.0     0.0     0.0
CSOK__22 CSOK__22     0 0            0.0     0.0     0.0     0.0
CSOK__25 CSOK__25     0 0            0.0     0.0     0.0     0.0
CSOK__51 CSOK__51     0 0            0.0     0.0     0.0     0.0
CSOK__52 CSOK__52     0 0            0.0     0.0     0.0   -0.01     0.0  -50.61     0.0     0.0
CSOK__53 CSOK__53     0 0            0.0     0.0     0.0     0.0
CSOK__54 CSOK__54     0 0            0.0     0.0     0.0     0.0
CSOK__55 CSOK__55     0 2  118.9   40.35    0.24  -3.743     0.0     0.0 -101.21     0.0     0.0
CSOK__56 CSOK__56     0 0          -0.06   -2.03     0.0     0.0
CSOK__57 CSOK__57     0 0            0.0     0.0     0.0     0.0
CSOK__58 CSOK__58     0 0            0.0     0.0     0.0     0.0
COVET_52 COVET_52     0 0            0.0     0.0     0.0     0.0
CPLZM_51 CPLZM_51     0 0          25.98   -2.65     0.0     0.0
CTAB__21 CTAB__21     0 0            0.0     0.0     0.0     0.0
CTAB__51 CTAB__51     0 2  118.7    12.6   -6.32  -5.932     0.0     0.0   -30.5     0.0     0.0
CTAB__52 CTAB__52     0 0            0.0     0.0     0.0     0.0
CPLZM_52 CPLZM_52     0 0            0.0     0.0     0.0     0.0
CEJPS_51 CEJPS_51     0 0            1.3    0.86     0.0     0.0
CRAJK_51 CRAJK_51     0 0            0.0     0.0     0.0     0.0
CRAJK_52 CRAJK_52     0 0            0.0     0.0     0.0   -0.01     0.0   -0.83    0.08    -0.1
CRAJK_53 CRAJK_53     0 2  119.2   26.12    3.58  -1.416  -0.075     0.0   -1.67    0.17   -0.19
CTYN__11 CTYN__11     0 0            0.0     0.0     0.0     0.0
CTYN__12 CTYN__12     0 0            0.0     0.0     0.0     0.0
CTYN__15 CTYN__15     0 0            0.0     0.0     0.0     0.0
CTYN__51 CTYN__51     0 0            0.0   -1.69     0.0     0.0
CTYN__52 CTYN__52     0 0           0.22   -1.86     0.0     0.0
CTYN__53 CTYN__53     0 0            0.0     0.0     0.0     0.0
CTYN__55 CTYN__55     0 0            0.0     0.0     0.0     0.0
CJACD_52 CJACD_52     0 0          15.97    1.35     0.0     0.0
CMCHZ_51 CMCHZ_51     0 0            0.0     0.0     0.0     0.0
CMCHZ_52 CMCHZ_52     0 0           7.91    0.17     0.0     0.0
CVER__11 CVER__11     0 0            0.0     0.0     0.0     0.0
CVER__12 CVER__12     0 0            0.0     0.0     0.0     0.0
CVER__15 CVER__15     0 0            0.0     0.0     0.0     0.0
CVER__51 CVER__51     0 2  120.3   31.26    1.47  -2.442    0.75     0.0  -19.12    0.75    -0.9
CVER__52 CVER__52     0 0            0.0     0.0     0.0     0.0
CVER__55 CVER__55     0 0            0.0     0.0     0.0     0.0
CVER__56 CVER__56     0 0            0.0     0.0     0.0     0.0
CVER__57 CVER__57     0 0            0.0     0.0     0.0     0.0
CCHES_51 CCHES_51     0 0          -1.25   -0.79     0.0     0.0
CCHES_52 CCHES_52     0 0            0.0     0.0     0.0     0.0
CELU3_51 CELU3_51     0 2  119.6   20.77    -1.9   0.032     0.0     0.0   -5.74     0.0     0.0
CVIT__21 CVIT__21     0 0            0.0     0.0     0.0     0.0
CVIT__22 CVIT__22     0 0            0.0     0.0     0.0     0.0
CVIT__25 CVIT__25     0 0            0.0     0.0     0.0     0.0
CVIT__51 CVIT__51     0 0           0.82   -0.16     0.0     0.0
CVIT__52 CVIT__52     0 0            0.0     0.0     0.0   -0.01     0.0   -7.09     0.4   -0.48
CVIT__53 CVIT__53     0 2  118.4   23.78    0.45  -0.935     0.4     0.0   -7.09     0.4   -0.48
CVIT__55 CVIT__55     0 0            0.0     0.0     0.0     0.0
CELU3_52 CELU3_52     0 0            0.0     0.0     0.0   -0.01     0.0  -115.0    48.5   -82.7
CDSTA_51 CDSTA_51     0 0            0.0     0.0     0.0     0.0
CDSTA_52 CDSTA_52     0 0          -0.89    0.84     0.0     0.0
CRICD_51 CRICD_51     0 0           7.43     0.7     0.0     0.0
CYDST_51 CYDST_51     0 0            0.0     0.0     0.0     0.0
CRICD_52 CRICD_52     0 0            0.0     0.0     0.0     0.0
CVTZ__21 CVTZ__21     0 2  237.4    7.14    -1.7  -2.203     0.0     0.0   -82.0     0.0     0.0
CVTZ__22 CVTZ__22     0 0            0.0     0.0     0.0     0.0
CVTZ__25 CVTZ__25     0 0            0.0     0.0     0.0     0.0
CVTZT_21 CVTZT_21     0 0            0.0     0.0     0.0     0.0
CEDET_59 CEDET_59     0 0            0.0     0.0     0.0   -0.01     0.0  -220.0   103.0  -170.0
CEDET_5A CEDET_5A     0 0            0.0     0.0     0.0   -0.01     0.0  -220.0   103.0  -170.0
CEDET_5B CEDET_5B     0 0            0.0     0.0     0.0   -0.01     0.0  -220.0   103.0  -170.0
CVMEZ_51 CVMEZ_51     0 2  117.6    25.9    1.08  -2.035     0.0     0.0  -22.48     0.0     0.0
CTOUZ_51 CTOUZ_51     0 2  119.4    7.05    0.67  -0.354    0.23     0.0    -2.3    0.23   -0.28
CFRNZ_51 CFRNZ_51     0 0            0.0     0.0     0.0     0.0
CFRNZ_52 CFRNZ_52     0 0          10.16    0.09     0.0     0.0
COVRU_51 COVRU_51     0 0            0.0     0.0     0.0     0.0
COVRU_52 COVRU_52     0 0          12.66   -3.41     0.0     0.0
CVYS__11 CVYS__11     0 0            0.0     0.0     0.0     0.0
CVYS__12 CVYS__12     0 0            0.0     0.0     0.0     0.0
CVYS__21 CVYS__21     0 0            0.0     0.0     0.0     0.0
CVYS__22 CVYS__22     0 0            0.0     0.0     0.0     0.0
CVYSH_11 CVYSH_11     0 0            0.0     0.0     0.0     0.0
CVYSH_19 CVYSH_19     0 0            0.0     0.0     0.0     0.0
CVYSH_12 CVYSH_12     0 0            0.0     0.0     0.0     0.0
CVYSH_13 CVYSH_13     0 0            0.0     0.0     0.0     0.0
CVYSH_14 CVYSH_14     0 0            0.0     0.0     0.0     0.0
CVYSH_15 CVYSH_15     0 0            0.0     0.0     0.0     0.0
CVYSH_16 CVYSH_16     0 0            0.0     0.0     0.0     0.0
CVYSH_17 CVYSH_17     0 0            0.0     0.0     0.0     0.0
CVYSH_18 CVYSH_18     0 0            0.0     0.0     0.0     0.0
CVYS__51 CVYS__51     0 0            0.0     0.0     0.0     0.0
CVYS__52 CVYS__52     0 0           0.12   -7.34     0.0     0.0
CVYS__53 CVYS__53     0 2  118.1    8.43   -7.87  -0.294     0.0     0.0   -5.63     0.0     0.0
CVYS__54 CVYS__54     0 0            0.0     0.0     0.0     0.0
CVYSH_1A CVYSH_1A     0 0            0.0     0.0     0.0     0.0
CSUM__51 CSUM__51     0 0            0.0     0.0     0.0     0.0
CSUM__52 CSUM__52     0 0          26.55   -1.45     0.0     0.0
CLPCE_51 CLPCE_51     0 0           8.34    2.97     0.0     0.0
CCERV_51 CCERV_51     0 0            0.0     0.0     0.0     0.0
CCERV_52 CCERV_52     0 0           22.1    2.05     0.0     0.0
CHBM__11 CHBM__11     0 0            0.0     0.0     0.0     0.0
CHBM__12 CHBM__12     0 0            0.0     0.0     0.0     0.0
CHBM__15 CHBM__15     0 0            0.0     0.0     0.0     0.0
CHBM__51 CHBM__51     0 0            0.0     0.0     0.0     0.0
CHBM__52 CHBM__52     0 0            0.0     0.0     0.0     0.0
CHBM__53 CHBM__53     0 0            0.0     0.0     0.0     0.0
CHBM__54 CHBM__54     0 0            0.0     0.0     0.0     0.0
CHBM__55 CHBM__55     0 0            0.0     0.0     0.0     0.0
CHBM__56 CHBM__56     0 0            0.0     0.0     0.0     0.0
CHBM__57 CHBM__57     0 0            0.0     0.0     0.0     0.0
CHBM__58 CHBM__58     0 0            0.0     0.0     0.0     0.0
CHBM__13 CHBM__13     0 0            0.0     0.0     0.0     0.0
CHBM__14 CHBM__14     0 0            0.0     0.0     0.0     0.0
CHBM__16 CHBM__16     0 0            0.0     0.0     0.0     0.0
CCERV_53 CCERV_53     0 0            0.0     0.0     0.0     0.0
CHRA__11 CHRA__11     0 0            0.0     0.0     0.0     0.0
CHRA__12 CHRA__12     0 0            0.0     0.0     0.0     0.0
CHRA__15 CHRA__15     0 0            0.0     0.0     0.0     0.0
CHRA__21 CHRA__21     0 0            0.0     0.0     0.0     0.0
CHRA__22 CHRA__22     0 0            0.0     0.0     0.0     0.0
CHRA__25 CHRA__25     0 0            0.0     0.0     0.0     0.0
CHRA__26 CHRA__26     0 0            0.0     0.0     0.0     0.0
CHRA__13 CHRA__13     0 0            0.0     0.0     0.0     0.0
CHRA__14 CHRA__14     0 0            0.0     0.0     0.0     0.0
CVRAT_51 CVRAT_51     0 0            0.0     0.0     0.0     0.0
CVRAT_52 CVRAT_52     0 0            0.0     0.0     0.0     0.0
CETBE_53 CETBE_53     0 0            0.0     0.0     0.0   -0.01     0.0  -93.75    30.0   -60.0
CETBE_54 CETBE_54     0 0            0.0     0.0     0.0     0.0
CSKNH_52 CSKNH_52     0 0            0.0     0.0     0.0     0.0
CSKNH_53 CSKNH_53     0 0            0.0     0.0     0.0     0.0
COVFI_51 COVFI_51     0 0            0.0     0.0     0.0     0.0
COVFI_52 COVFI_52     0 0          11.49   -3.21     0.0     0.0
CRZNV_51 CRZNV_51     0 0            0.0     0.0     0.0     0.0
CRZNV_52 CRZNV_52     0 2  116.5    27.9    1.24  -1.956     0.0     0.0  -20.98     0.0     0.0
CRZNV_53 CRZNV_53     0 0            0.0     0.0     0.0     0.0
CHRD__11 CHRD__11     0 0            0.0     0.0     0.0     0.0
CHRD__12 CHRD__12     0 0            0.0     0.0     0.0     0.0
CHRD__13 CHRD__13     0 0            0.0     0.0     0.0     0.0
CHRD__14 CHRD__14     0 0            0.0     0.0     0.0     0.0
CHRD__15 CHRD__15     0 0            0.0     0.0     0.0     0.0
CHDLN_51 CHDLN_51     0 0            0.0     0.0     0.0     0.0
CHDLN_52 CHDLN_52     0 2  117.4    43.1    1.97 -14.655  -4.555     0.0  -69.53    15.6  -32.24
CHRD_211 CHRD_211     0 0            0.0     0.0     0.0     0.0
CHRD_212 CHRD_212     0 0            0.0     0.0     0.0     0.0
CHRD_213 CHRD_213     0 0            0.0     0.0     0.0     0.0
CHRD_214 CHRD_214     0 0            0.0     0.0     0.0     0.0
CHRD_215 CHRD_215     0 0            0.0     0.0     0.0     0.0
CHRD_216 CHRD_216     0 0            0.0     0.0     0.0     0.0
CHDLN_53 CHDLN_53     0 0            0.0     0.0     0.0   -0.01     0.0   -9.54     0.0     0.0
CHZI__11 CHZI__11     0 0            0.0     0.0     0.0     0.0
CHZI__12 CHZI__12     0 0            0.0     0.0     0.0     0.0
CHZI__15 CHZI__15     0 0            0.0     0.0     0.0     0.0
CHZI__51 CHZI__51     0 0           0.46   -6.22     0.0     0.0
CHZI__52 CHZI__52     0 0           0.21   -6.67     0.0     0.0
CHZI__53 CHZI__53     0 0            0.0     0.0     0.0     0.0
CHZI__55 CHZI__55     0 0            0.0     0.0     0.0     0.0
CYOLS_51 CYOLS_51     0 0            0.0     0.0     0.0     0.0
CKUNC_51 CKUNC_51     0 0          16.93    2.04     0.0     0.0
CCSAR_52 CCSAR_52     0 0           0.02   -0.01     0.0     0.0
CHANU_51 CHANU_51     0 2  119.0    7.39   -0.21    -2.6   0.146     0.0    -4.6    0.46   -0.55
CHANU_52 CHANU_52     0 0            0.0     0.0     0.0     0.0
CNOSE_51 CNOSE_51     0 0           5.11    0.21     0.0     0.0
CVYSC_51 CVYSC_51     0 0            0.0     0.0     0.0     0.0
CVYSC_52 CVYSC_52     0 0           7.56    -1.8     0.0     0.0
CYRIV_51 CYRIV_51     0 0            0.0     0.0     0.0     0.0
CYRIV_52 CYRIV_52     0 0            0.0     0.0     0.0     0.0
COLCS_51 COLCS_51     0 2  117.2   17.23   -3.17  -0.525     0.0     0.0   -5.75     0.0     0.0
COLCS_52 COLCS_52     0 2  117.3   15.09   -3.93  -0.515     0.0     0.0   -5.75     0.0     0.0
CTRME_51 CTRME_51     0 0            0.0     0.0     0.0     0.0
CDOMA_52 CDOMA_52     0 2  118.6   23.24     3.6  -3.484     0.0     0.0  -28.53     0.0     0.0
CNOJI_51 CNOJI_51     0 2  118.4   21.91    1.17  -1.125     0.0     0.0  -12.18     0.0     0.0
CNOJI_52 CNOJI_52     0 0            0.0     0.0     0.0     0.0
CDOUV_51 CDOUV_51     0 0            0.0     0.0     0.0     0.0
CDOUV_52 CDOUV_52     0 0            0.0     0.0     0.0     0.0
CNOH2_51 CNOH2_51     0 0           8.98    8.22     0.0     0.0
CNOH2_52 CNOH2_52     0 0            0.0     0.0     0.0     0.0
CNEPM_51 CNEPM_51     0 0            0.0     0.0     0.0     0.0
CTRZ4_51 CTRZ4_51     0 0            0.0     0.0     0.0     0.0
CTRZ4_52 CTRZ4_52     0 0            0.0     0.0     0.0     0.0
CKLT__11 CKLT__11     0 0            0.0     0.0     0.0     0.0
CKLT__12 CKLT__12     0 0            0.0     0.0     0.0     0.0
CKLT__15 CKLT__15     0 0            0.0     0.0     0.0     0.0
CJIND_51 CJIND_51     0 2  117.2   12.77   -0.04  -0.135   0.165     0.0   -1.66    0.17    -0.2
CKLT__51 CKLT__51     0 0          -1.98   -6.85     0.0     0.0
CKLT__52 CKLT__52     0 0           3.65    -6.7     0.0     0.0
CKLT__53 CKLT__53     0 0            0.0     0.0     0.0     0.0
CKLT__55 CKLT__55     0 0            0.0     0.0     0.0     0.0
CYDA2_52 CYDA2_52     0 0            0.0     0.0     0.0     0.0
CBIOC_51 CBIOC_51     0 0          -1.92   -0.83     0.0     0.0
CBIOC_52 CBIOC_52     0 0          -2.04   -0.36     0.0     0.0
CMOSN_54 CMOSN_54     0 0            0.0     0.0     0.0     0.0
CHOSE_52 CHOSE_52     0 2  117.2   23.95    4.49  -2.675     0.1     0.0    -9.4     0.1   -0.12
CYMED_51 CYMED_51     0 0            0.0     0.0     0.0     0.0
CAS01_51 CAS01_51     0 0            0.0     0.0     0.0     0.0
CYRIC_52 CYRIC_52     0 0            0.0     0.0     0.0     0.0
CVRAT_53 CVRAT_53     0 0            0.0     0.0     0.0     0.0
CVRAT_54 CVRAT_54     0 0            0.0     0.0     0.0     0.0
CYDST_52 CYDST_52     0 0            0.0     0.0     0.0     0.0
CKUNC_52 CKUNC_52     0 0            0.0     0.0     0.0     0.0
CHAVB_51 CHAVB_51     0 0            0.0     0.0     0.0     0.0
CHAVB_52 CHAVB_52     0 0           11.9   -3.55     0.0     0.0
CAS01_52 CAS01_52     0 2  117.1    11.4    1.15  -2.157   0.723     0.0   -26.7    2.67    -3.2
CKRNV_51 CKRNV_51     0 0            0.0     0.0     0.0     0.0
CDDKL_51 CDDKL_51     0 0            0.0     0.0     0.0     0.0
CDDKL_52 CDDKL_52     0 0           1.69    0.88     0.0     0.0
CKRNV_52 CKRNV_52     0 0          10.37    0.55     0.0     0.0
CMOHE_51 CMOHE_51     0 0          18.08     2.1     0.0     0.0
CMOHE_52 CMOHE_52     0 0            0.0     0.0     0.0     0.0
CYSDC_51 CYSDC_51     0 0            0.0     0.0     0.0     0.0
CYSDC_52 CYSDC_52     0 0            0.0     0.0     0.0     0.0
CUSCD_51 CUSCD_51     0 0            0.0     0.0     0.0     0.0
CUSCD_52 CUSCD_52     0 0           0.42    0.09     0.0     0.0
CVRE__55 CVRE__55     0 2  117.6   10.45   16.49 -54.831  -9.868     0.0  -136.0    76.8   -76.8
CVRE__56 CVRE__56     0 2  117.6   21.19    9.65 -109.68  -0.196     0.0  -136.0    76.8   -76.8
CJEHL_51 CJEHL_51     0 0           5.33    0.91     0.0     0.0
CJEHL_52 CJEHL_52     0 0            0.0     0.0     0.0     0.0
CJEHL_53 CJEHL_53     0 0            0.0     0.0     0.0     0.0
CNOH3_51 CNOH3_51     0 0           1.12    3.32     0.0     0.0
CNOH3_52 CNOH3_52     0 0           4.37    1.57     0.0     0.0
CKLAT_51 CKLAT_51     0 2  119.1   14.11    1.22  -2.242     0.0     0.0  -18.41     0.0     0.0
CLIS__59 CLIS__59     0 0            0.0     0.0     0.0     0.0
CCEVE_52 CCEVE_52     0 0            0.0     0.0     0.0     0.0
COLSN_51 COLSN_51     0 0           11.6    3.51     0.0     0.0
COLSN_52 COLSN_52     0 0            0.0     0.0     0.0     0.0
COVTB_54 COVTB_54     0 0          26.09   -2.76     0.0     0.0
CPLZJ_51 CPLZJ_51     0 0            0.0     0.0     0.0     0.0
CPLZJ_52 CPLZJ_52     0 2  119.6   10.83   -0.94  -1.924     0.0     0.0  -10.14     0.0     0.0
CUNIC_51 CUNIC_51     0 0           7.23    1.04     0.0     0.0
CUNIC_52 CUNIC_52     0 0            0.0     0.0     0.0     0.0
CHSCD_51 CHSCD_51     0 0            0.0     0.0     0.0     0.0
CHSCD_52 CHSCD_52     0 0           1.54    0.39     0.0     0.0
CYELU_51 CYELU_51     0 0            0.0     0.0     0.0     0.0
CMART_51 CMART_51     0 0            0.0     0.0     0.0     0.0
CVMEZ_52 CVMEZ_52     0 0            0.0     0.0     0.0     0.0
CEPC2_11 CEPC2_11     0 2  412.8    1.45   -8.58 -779.16  36.793     0.0  -965.0   375.0  -570.0
CKOSE_51 CKOSE_51     0 0           6.28   -0.12     0.0     0.0
CKOSE_52 CKOSE_52     0 0            0.0     0.0     0.0     0.0
CYJIR_51 CYJIR_51     0 0            0.0     0.0     0.0     0.0
CDOUV_53 CDOUV_53     0 0           2.03    -0.0     0.0     0.0
CDOUV_54 CDOUV_54     0 0            0.0     0.0     0.0     0.0
CJIRI_52 CJIRI_52     0 0           0.47    0.06     0.0     0.0
CYDOE_51 CYDOE_51     0 0            0.0     0.0     0.0     0.0
CYDOE_52 CYDOE_52     0 0            0.0     0.0     0.0     0.0
CBRUN_51 CBRUN_51     0 0            0.0     0.0     0.0     0.0
CYHAN_51 CYHAN_51     0 0            0.0     0.0     0.0     0.0
CVES__51 CVES__51     0 0            0.0     0.0     0.0     0.0
CYHAN_52 CYHAN_52     0 0            0.0     0.0     0.0     0.0
CVRAD_51 CVRAD_51     0 0            0.0     0.0     0.0     0.0
CCERN_51 CCERN_51     0 0            0.0     0.0     0.0     0.0
CCERN_52 CCERN_52     0 0           8.81   -0.03     0.0     0.0
CDRMO_51 CDRMO_51     0 2  116.7    15.6    1.33  -1.413     0.0     0.0  -11.74     0.0     0.0
CDRMO_52 CDRMO_52     0 0            0.0     0.0     0.0     0.0
CSTCD_51 CSTCD_51     0 0            0.0     0.0     0.0     0.0
CSTCD_52 CSTCD_52     0 0           8.96    0.82     0.0     0.0
CKUNC_53 CKUNC_53     0 0            0.0     0.0     0.0     0.0
CDDA1_51 CDDA1_51     0 0           3.67   -6.58     0.0     0.0
CDDA1_52 CDDA1_52     0 0            0.0     0.0     0.0     0.0
CDDA1_53 CDDA1_53     0 0            0.0     0.0     0.0     0.0
CNEPM_52 CNEPM_52     0 2  118.9    8.51    0.92  -1.083    0.08     0.0   -4.94    0.08    -0.1
CHORE_51 CHORE_51     0 0            0.0     0.0     0.0     0.0
CBELA_52 CBELA_52     0 2  118.4    5.26    1.14  -4.098     0.0     0.0  -16.74     0.0     0.0
CJIND_52 CJIND_52     0 2  117.2   12.34    -0.0  -0.134   0.165     0.0   -1.66    0.17    -0.2
CHORE_52 CHORE_52     0 2  118.7     8.5    1.51  -1.117     0.0     0.0   -4.51     0.0     0.0
CVRAT_55 CVRAT_55     0 0            0.0     0.0     0.0     0.0
CVRAT_56 CVRAT_56     0 0            0.0     0.0     0.0     0.0
CLUTN_51 CLUTN_51     0 0           3.95     0.6     0.0     0.0
CLUTN_52 CLUTN_52     0 0            0.0     0.0     0.0     0.0
CEDET_5C CEDET_5C     0 0            0.0     0.0     0.0     0.0
CEDET_5D CEDET_5D     0 0            0.0     0.0     0.0     0.0
CTRZ3_51 CTRZ3_51     0 0            0.0     0.0     0.0     0.0
CPLAD_51 CPLAD_51     0 0           0.62    0.26     0.0     0.0
CTRZ3_52 CTRZ3_52     0 0          22.73     9.7     0.0     0.0
CHRCE_51 CHRCE_51     0 0            0.0     0.0     0.0     0.0
CHRCE_52 CHRCE_52     0 0          11.23    3.61     0.0     0.0
CSRCD_51 CSRCD_51     0 0           7.27    0.41     0.0     0.0
CSRCD_52 CSRCD_52     0 0            0.0     0.0     0.0     0.0
CPRIR_52 CPRIR_52     0 0            0.0     0.0     0.0     0.0
CTUHN_51 CTUHN_51     0 0          14.79   -0.65     0.0     0.0
CTUHN_52 CTUHN_52     0 0            0.0     0.0     0.0     0.0
CPRIR_53 CPRIR_53     0 0          12.48   -0.01     0.0     0.0
CVITK_51 CVITK_51     0 0            0.0     0.0     0.0   -0.01     0.0    -3.3    0.33    -0.4
CLPCE_52 CLPCE_52     0 0            0.0     0.0     0.0     0.0
CBRUN_52 CBRUN_52     0 0          13.87    0.78     0.0     0.0
CVITK_52 CVITK_52     0 2  118.5    7.81    2.15  -3.826    0.33     0.0    -3.3    0.33    -0.4
CBRID_51 CBRID_51     0 0            0.0     0.0     0.0     0.0
CBRID_52 CBRID_52     0 2  117.8   14.85    3.58  -1.783   0.148     0.0  -46.14    0.17   -0.19
COSTR_51 COSTR_51     0 2  117.6    11.3    0.56  -0.069   0.088     0.0   -0.89    0.09   -0.11
COSTR_52 COSTR_52     0 2  117.6    8.29   -0.84  -0.069   0.088     0.0   -0.89    0.09   -0.11
CPLAD_52 CPLAD_52     0 0            0.0     0.0     0.0     0.0
CTACH_51 CTACH_51     0 2  118.3   16.73    1.45  -4.709   0.452     0.0  -40.21    0.45   -0.54
CTACH_52 CTACH_52     0 0            0.0     0.0     0.0     0.0
CKRAL_51 CKRAL_51     0 0            0.0     0.0     0.0     0.0
CHRZE_52 CHRZE_52     0 0            0.0     0.0     0.0     0.0
CHRZE_53 CHRZE_53     0 0            0.0     0.0     0.0     0.0     0.0  -14.35     0.0     0.0
CKRAL_52 CKRAL_52     0 2  119.5    3.71    1.61  -2.437     0.0     0.0  -20.94     0.0     0.0
CODRY_51 CODRY_51     0 2  118.6    9.74    1.89  -2.283     0.2     0.0    -4.0     0.4   -0.48
CODRY_52 CODRY_52     0 0            0.0     0.0     0.0     0.0
CNEZV_51 CNEZV_51     0 0            1.8    0.68     0.0     0.0
CNEZV_52 CNEZV_52     0 0            0.0     0.0     0.0     0.0
CVRAD_52 CVRAD_52     0 0           0.27    0.05     0.0     0.0
CMEDV_51 CMEDV_51     0 2  120.4     0.0     0.0     0.0   1.285     0.0   -42.0     4.2   -5.04
CTRZ4_53 CTRZ4_53     0 0            0.0     0.0     0.0     0.0
CTRZ4_54 CTRZ4_54     0 0            0.0     0.0     0.0     0.0
CSTRI_51 CSTRI_51     0 2  118.8   12.85    0.29   -7.28     0.0     0.0  -29.95     0.0     0.0
CSTRI_52 CSTRI_52     0 0            0.0     0.0     0.0     0.0
CSTRI_53 CSTRI_53     0 0            0.0     0.0     0.0   -0.01     0.0  -29.95     0.0     0.0
CYNOS_51 CYNOS_51     0 0            0.0     0.0     0.0     0.0
CYOLC_51 CYOLC_51     0 0            0.0     0.0     0.0     0.0
CYOLC_52 CYOLC_52     0 0            0.0     0.0     0.0     0.0
CNOH4_53 CNOH4_53     0 0         -11.42   -1.07     0.0     0.0
CNOH4_54 CNOH4_54     0 0            0.0     0.0     0.0     0.0
CYDA1_51 CYDA1_51     0 0            0.0     0.0     0.0     0.0
CHOLY_51 CHOLY_51     0 0            0.0     0.0     0.0     0.0
CMART_52 CMART_52     0 0            0.0     0.0     0.0     0.0
CMART_53 CMART_53     0 0           5.17   -1.17     0.0     0.0
CHOBR_52 CHOBR_52     0 2  119.2   15.37    1.97   -6.71    3.84     0.0  -36.23     5.0   -10.0
CNYRS_51 CNYRS_51     0 0           4.34    0.37     0.0     0.0
CNYRS_52 CNYRS_52     0 0            0.0     0.0     0.0     0.0
CYOLS_52 CYOLS_52     0 0            0.0     0.0     0.0     0.0
CSTON_51 CSTON_51     0 0            0.0     0.0     0.0     0.0
CSTON_52 CSTON_52     0 0            0.0     0.0     0.0     0.0
CTOUZ_52 CTOUZ_52     0 0            0.0     0.0     0.0   -0.01     0.0    -2.3    0.23   -0.28
CNOH1_51 CNOH1_51     0 0          13.66    9.21     0.0     0.0
CNOH1_52 CNOH1_52     0 0          -3.39    6.79     0.0     0.0
CTKAR_52 CTKAR_52     0 0            0.0     0.0     0.0   -0.01     0.0   -19.0     6.0   -11.0
CKOPR_51 CKOPR_51     0 0           18.3    3.83     0.0     0.0
CHRNE_51 CHRNE_51     0 0            0.0     0.0     0.0     0.0
CHRNE_52 CHRNE_52     0 2  118.4   -2.31    2.13  -5.745  -0.087     0.0  -23.47    0.26   -0.31
CKOPR_52 CKOPR_52     0 0            0.0     0.0     0.0     0.0
CE804_51 CE804_51     0 0           1.67    0.85     0.0     0.0
CHRNE_53 CHRNE_53     0 0            0.0     0.0     0.0     0.0
CE804_52 CE804_52     0 0            0.0     0.0     0.0     0.0
COLCH_51 COLCH_51     0 0            0.0     0.0     0.0     0.0
COLCH_52 COLCH_52     0 2  117.4   18.63   -2.23  -1.305     0.0     0.0  -14.59     0.0     0.0
CHTRA_51 CHTRA_51     0 0          16.44    3.65     0.0     0.0
CHTRA_52 CHTRA_52     0 0            0.0     0.0     0.0     0.0
CDCSM_51 CDCSM_51     0 0           9.33    9.04     0.0     0.0
CDCSM_52 CDCSM_52     0 0            0.0     0.0     0.0     0.0
CETBE_55 CETBE_55     0 0            0.0     0.0     0.0     0.0
CTPPL_51 CTPPL_51     0 2  119.6   -5.76    4.02   -14.0     5.0     0.0   -83.5    25.0   -47.0
CTPPL_52 CTPPL_52     0 2  119.6    7.08   -3.06 -26.938  13.069     0.0   -67.0    19.0   -38.0
CBOHA_51 CBOHA_51     0 0            0.0     0.0     0.0     0.0
CBOHA_52 CBOHA_52     0 2  117.7   14.36   -0.41  -0.936     0.0     0.0    -8.0     0.0     0.0
CROPC_57 CROPC_57     0 0          23.52   -1.65     0.0     0.0
CROPC_58 CROPC_58     0 0            0.0     0.0     0.0     0.0
CDEZA_51 CDEZA_51     0 0            0.0     0.0     0.0     0.0
CDEZA_52 CDEZA_52     0 0           7.62    0.46     0.0     0.0
CTRME_52 CTRME_52     0 0           2.24   -0.05     0.0     0.0
CKLAT_52 CKLAT_52     0 2  119.0    11.5    2.27  -2.226     0.0     0.0  -18.41     0.0     0.0
CHRNE_55 CHRNE_55     0 0            0.0     0.0     0.0     0.0
CHRNE_54 CHRNE_54     0 0            0.0     0.0     0.0     0.0
CXMOB_51 CXMOB_51     0 0            0.0     0.0     0.0     0.0
CXSTC_51 CXSTC_51     0 0            0.0     0.0     0.0     0.0
CXJBS_51 CXJBS_51     0 0            0.0     0.0     0.0     0.0
CVIT__11 CVIT__11     0 0            0.0     0.0     0.0     0.0
CVIT__12 CVIT__12     0 0            0.0     0.0     0.0     0.0
CVIT__13 CVIT__13     0 0            0.0     0.0     0.0     0.0
CVIT__14 CVIT__14     0 0            0.0     0.0     0.0     0.0
CXSOK_51 CXSOK_51     0 0            0.0     0.0     0.0     0.0
CVIT__56 CVIT__56     0 0            0.0     0.0     0.0     0.0
CYST__51 CYST__51     0 0            0.0     0.0     0.0     0.0
CYST__52 CYST__52     0 0            0.0     0.0     0.0     0.0
CBNT__51 CBNT__51     0 0            0.0     0.0     0.0     0.0
CBNT__52 CBNT__52     0 0            0.0     0.0     0.0     0.0
CVMZ__51 CVMZ__51     0 2  117.3   19.09     1.3   -0.82     0.0     0.0  -21.27     0.0     0.0
CVMZ__52 CVMZ__52     0 0            0.0     0.0     0.0     0.0
CHO___51 CHO___51     0 0            0.0     0.0     0.0   -0.01     0.0   -58.0     7.0   -34.0
CUNOV_51 CUNOV_51     0 0            0.0     0.0     0.0     0.0
CUNOV_52 CUNOV_52     0 0            0.0     0.0     0.0     0.0
CHO___52 CHO___52     0 2  117.1    3.88   -0.82  -0.417     0.0     0.0  -22.97     0.0     0.0
CMAD__51 CMAD__51     0 2  119.7   20.29   -0.96   -0.13     0.0     0.0   -3.78     0.0     0.0
CMAD__52 CMAD__52     0 2  119.7   18.16   -2.65  -0.129     0.0     0.0   -7.57     0.0     0.0
CHJ___51 CHJ___51     0 2  117.1   15.03   -0.41  -3.684    0.85     0.0 -102.84    0.85   -1.02
CHJ___52 CHJ___52     0 0            0.0     0.0     0.0     0.0
CBNC__51 CBNC__51     0 0          21.26    0.92     0.0     0.0
CBNC__52 CBNC__52     0 0            0.0     0.0     0.0     0.0
CPTA__51 CPTA__51     0 0            0.0     0.0     0.0     0.0
CPTA__52 CPTA__52     0 2  117.6    5.31   -1.34  -0.472     0.0     0.0   -7.39     0.0     0.0
CUHD__51 CUHD__51     0 0            0.0     0.0     0.0     0.0
COKD__51 COKD__51     0 0           1.85   -0.61     0.0     0.0
COKD__52 COKD__52     0 0            0.0     0.0     0.0     0.0
CUHD__52 CUHD__52     0 2  119.4   33.13    0.79  -0.975     0.0     0.0  -26.61     0.0     0.0
CNZD__51 CNZD__51     0 0            0.0     0.0     0.0     0.0
CKV___51 CKV___51     0 0            0.0     0.0     0.0     0.0
CKV___52 CKV___52     0 0           23.7    0.84     0.0     0.0
CNZD__52 CNZD__52     0 0           3.38     0.7     0.0     0.0
CBK___51 CBK___51     0 2  118.3   22.07   -0.14  -0.078    0.36     0.0    -3.6    0.36   -0.43
CNAD__51 CNAD__51     0 0            0.0     0.0     0.0     0.0
CBNT__53 CBNT__53     0 0            0.0     0.0     0.0     0.0
CBNT__54 CBNT__54     0 0          32.95   -4.06     0.0     0.0
CPRT__51 CPRT__51     0 2  116.2   49.93    0.56  -3.791     0.0     0.0 -103.49     0.0     0.0
CAD___51 CAD___51     0 0           1.86    0.61     0.0     0.0
CYNA__51 CYNA__51     0 0            0.0     0.0     0.0     0.0
COS___51 COS___51     0 0            0.0     0.0     0.0     0.0
COS___52 COS___52     0 2  118.5   26.48    0.99  -2.663   0.538     0.0 -109.12     0.6   -0.72
CPRN__13 CPRN__13     0 0            0.0     0.0     0.0     0.0
CPRN__14 CPRN__14     0 0            0.0     0.0     0.0     0.0
CPRN__16 CPRN__16     0 0            0.0     0.0     0.0     0.0
CPRN__17 CPRN__17     0 0            0.0     0.0     0.0     0.0
CJI___51 CJI___51     0 0            0.0     0.0     0.0     0.0
CSLB__51 CSLB__51     0 0            0.0     0.0     0.0     0.0
CSLB__52 CSLB__52     0 2  118.6   14.79     0.2  -0.978     0.0     0.0  -26.38     0.0     0.0
CTEL__51 CTEL__51     0 0            0.0     0.0     0.0     0.0
CHO___55 CHO___55     0 0            0.0     0.0     0.0     0.0
CHO___56 CHO___56     0 2  118.8    13.4    0.42 -20.335   5.302     0.0  -75.49    18.0   -49.0
CBO___51 CBO___51     0 0            0.0     0.0     0.0   -0.01     0.0  -22.69     0.0     0.0
CBO___52 CBO___52     0 2  118.1   25.34    1.27  -1.636     0.0     0.0  -22.69     0.0     0.0
CVRV__51 CVRV__51     0 2  118.1    2.74   -0.44  -1.483     0.0     0.0  -39.12     9.0    -9.0
CMI___51 CMI___51     0 0            0.0     0.0     0.0     0.0
CKNC__51 CKNC__51     0 2  115.8     9.7    0.93  -1.571    1.24     0.0  -45.75    1.24   -1.49
CKNC__52 CKNC__52     0 0            0.0     0.0     0.0     0.0
CDAC__51 CDAC__51     0 0            0.0     0.0     0.0     0.0
CYAD__51 CYAD__51     0 0            0.0     0.0     0.0     0.0
CNAO__51 CNAO__51     0 0            0.0     0.0     0.0   -0.01     0.0   -8.69     0.0     0.0
CSLU__51 CSLU__51     0 2  119.3   22.86    2.94  -0.487     0.0     0.0  -13.56     0.0     0.0
CSLU__52 CSLU__52     0 0            0.0     0.0     0.0   -0.01     0.0  -51.74     0.0     0.0
CSUZ__51 CSUZ__51     0 2  118.0   39.12    -1.2  -1.844     0.0     0.0  -73.92     0.0     0.0
CSUZ__52 CSUZ__52     0 0            0.0     0.0     0.0     0.0
CMEY__51 CMEY__51     0 0          37.52   -7.29     0.0     0.0
CMEY__52 CMEY__52     0 0            0.0     0.0     0.0     0.0
CYOS__51 CYOS__51     0 0            0.0     0.0     0.0     0.0
CBOR__51 CBOR__51     0 0            0.0     0.0     0.0     0.0
CBOR__52 CBOR__52     0 0           6.46    1.66     0.0     0.0
CDK2__51 CDK2__51     0 0            2.0    1.17     0.0     0.0
CDK2__52 CDK2__52     0 0           0.53   -2.38     0.0     0.0
CVBT__51 CVBT__51     0 0            0.0     0.0     0.0     0.0
CVBT__52 CVBT__52     0 0           9.91   -0.58     0.0     0.0
CVLM__51 CVLM__51     0 0            0.0     0.0     0.0     0.0
CVLM__52 CVLM__52     0 2  118.7    13.9    0.84  -2.896     0.0     0.0  -75.66     0.0     0.0
CVLM__53 CVLM__53     0 0            0.0     0.0     0.0     0.0
CVLM__54 CVLM__54     0 0            0.0     0.0     0.0     0.0
CVOP__51 CVOP__51     0 2  118.2     6.0    1.88  -0.458     0.0     0.0  -16.94     0.0     0.0
CVOP__52 CVOP__52     0 0            0.0     0.0     0.0     0.0
CVOP__53 CVOP__53     0 0            0.0     0.0     0.0     0.0
CBYP__51 CBYP__51     0 0            0.0     0.0     0.0     0.0
CBYP__52 CBYP__52     0 2  118.6    5.92   -2.63  -0.255     0.0     0.0   -7.55     0.0     0.0
CBYP__53 CBYP__53     0 2  118.6    8.06    -0.3  -0.261     0.0     0.0   -7.55     0.0     0.0
CDAC__52 CDAC__52     0 2  116.9   10.19    1.35  -2.522     0.0     0.0  -12.74     0.0     0.0
CKRA__57 CKRA__57     0 0            0.0     0.0     0.0     0.0
CKRA__58 CKRA__58     0 0            0.0     0.0     0.0     0.0
CMQ___52 CMQ___52     0 0           8.63    1.71     0.0     0.0
CMQ___53 CMQ___53     0 0            0.0     0.0     0.0     0.0
CMQ___54 CMQ___54     0 0            0.0     0.0     0.0     0.0
CPHE__51 CPHE__51     0 0            0.0     0.0     0.0     0.0
CPHE__52 CPHE__52     0 2  117.3    9.57    0.12  -0.521     0.0     0.0  -14.29     0.0     0.0
...